Circuit: * D:\ECE-Lab\EC201\L7\AnotherOne.asc

Direct Newton iteration for .op point succeeded.

Date: Tue Dec 07 18:03:26 2021
Total elapsed time: 0.111 seconds.

tnom = 27
temp = 27
method = modified trap
totiter = 1655
traniter = 1644
tranpoints = 667
accept = 461
rejected = 206
matrix size = 38
fillins = 29
solver = Normal
Matrix Compiler1: 2.98 KB object code size  1.0/0.4/[0.3]
Matrix Compiler2: off  [0.4]/0.6/0.4

