Circuit: * D:\ECE-Lab\EC201\L7\Draft1.asc

Direct Newton iteration for .op point succeeded.

Date: Sun Dec 19 22:45:41 2021
Total elapsed time: 0.112 seconds.

tnom = 27
temp = 27
method = trap
totiter = 11
traniter = 0
tranpoints = 0
accept = 0
rejected = 0
matrix size = 40
fillins = 45
solver = Normal
Matrix Compiler1:     231 opcodes
Matrix Compiler2: 4.01 KB object code size
