Circuit: * D:\ECE-Lab\EC201\L7\Draft3.asc

Direct Newton iteration for .op point succeeded.

Date: Thu Jan 06 22:08:14 2022
Total elapsed time: 0.078 seconds.

tnom = 27
temp = 27
method = modified trap
totiter = 2254
traniter = 2247
tranpoints = 1042
accept = 1042
rejected = 0
matrix size = 7
fillins = 0
solver = Normal
Matrix Compiler1: 178 bytes object code size  0.1/0.0/[0.0]
Matrix Compiler2: 427 bytes object code size  0.1/0.1/[0.1]

