Circuit: * D:\ECE-Lab\EC201\L7\Draft2.asc

Direct Newton iteration for .op point succeeded.

Date: Tue Dec 21 14:52:47 2021
Total elapsed time: 0.061 seconds.

tnom = 27
temp = 27
method = modified trap
totiter = 2261
traniter = 2250
tranpoints = 1126
accept = 1074
rejected = 52
matrix size = 39
fillins = 39
solver = Normal
Matrix Compiler1: 3.64 KB object code size  0.6/0.3/[0.2]
Matrix Compiler2: 3.80 KB object code size  0.2/0.4/[0.2]

