Circuit: * D:\ECE-Lab\EC201\L7\Draft4.asc

Direct Newton iteration for .op point succeeded.

Date: Tue Dec 21 15:12:37 2021
Total elapsed time: 0.145 seconds.

tnom = 27
temp = 27
method = modified trap
totiter = 6135
traniter = 6124
tranpoints = 2076
accept = 1692
rejected = 384
matrix size = 40
fillins = 29
solver = Normal
Matrix Compiler1: 3.01 KB object code size  0.6/0.3/[0.2]
Matrix Compiler2: 3.65 KB object code size  0.2/0.4/[0.2]

