Circuit: * D:\ECE-Lab\EC201\L6New\Draft1.asc

Direct Newton iteration for .op point succeeded.
Heightened Def Con from 1.12037e-009 to 2.24537e-009

Date: Tue Dec 07 11:23:54 2021
Total elapsed time: 0.239 seconds.

tnom = 27
temp = 27
method = modified trap
totiter = 3237
traniter = 3226
tranpoints = 958
accept = 649
rejected = 310
matrix size = 38
fillins = 29
solver = Normal
Matrix Compiler1: 2.96 KB object code size  0.9/0.4/[0.3]
Matrix Compiler2: off  [0.4]/0.6/0.5

